program/supporting code/tes123.m
function mpc = tes123
%TES123

%% MATPOWER Case Format : Version 2
mpc.version = '2';

%%-----  Power Flow Data  -----%%
%% system MVA base
mpc.baseMVA = 100;

%% bus data
%	bus_i	type	Pd	Qd	Gs	Bs	area	Vm	Va	baseKV	zone	Vmax	Vmin	lam_P	lam_Q	mu_Vmax	mu_Vmin
mpc.bus = [
	1	3	0	0	0	0	1	1	0	135	1	1.05	0.95	0.0000	0.0000	0.0000	0.0000;
	2	2	0.044485	12.7	0	0	1	1	-0.0023418384	135	1	1.1	0.95	0.0000	0.0000	0.0000	0.0000;
	3	1	0.01312	1.2	0	0	1	1	-0.00347036719	135	1	1.05	0.95	0.0000	0.0000	0.0000	0.0000;
	4	2	0.01558	1.6	0	0	1	1	-0.00390028255	135	1	1.05	0.95	0.0000	0.0000	0.0000	0.0000;
	5	1	0	0	0	0.19	1	1	-0.0046463332	135	1	1.05	0.95	0.0000	0.0000	0.0000	0.0000;
	6	1	0	0	0	0	1	1	-0.00480842421	135	1	1.05	0.95	0.0000	0.0000	0.0000	0.0000;
	7	2	0.04674	10.9	0	0	1	1	-0.00602903008	135	1	1.05	0.95	0.0000	0.0000	0.0000	0.0000;
	8	1	0.0615	30	0	0	1	1	-0.00600345131	135	1	1.05	0.95	0.0000	0.0000	0.0000	0.0000;
	9	1	0	0	0	0	1	1	-0.00336878398	135	1	1.05	0.95	0.0000	0.0000	0.0000	0.0000;
	10	2	0.01189	2	0	0	3	1	-0.00261468672	135	1	1.05	0.95	0.0000	0.0000	0.0000	0.0000;
	11	1	0	0	0	0	1	1	-0.00336878398	135	1	1.05	0.95	0.0000	0.0000	0.0000	0.0000;
	12	1	0.02296	7.5	0	0	2	1	5.85446452e-05	135	1	1.05	0.95	0.0000	0.0000	0.0000	0.0000;
	13	2	0	0	0	0	2	1	0.00647719705	135	1	1.1	0.95	0.0000	0.0000	0.0000	0.0000;
	14	1	0.01271	1.6	0	0	2	1	-0.00101194412	135	1	1.05	0.95	0.0000	0.0000	0.0000	0.0000;
	15	2	0.01681	2.5	0	0	2	1	-0.000378938306	135	1	1.05	0.95	0.0000	0.0000	0.0000	0.0000;
	16	1	0.007585	1.8	0	0	2	1	-0.00193818131	135	1	1.05	0.95	0.0000	0.0000	0.0000	0.0000;
	17	1	0.01845	5.8	0	0	2	1	-0.00300935284	135	1	1.05	0.95	0.0000	0.0000	0.0000	0.0000;
	18	1	0.01066	0.9	0	0	2	1	-0.00357308685	135	1	1.05	0.95	0.0000	0.0000	0.0000	0.0000;
	19	1	0.019475	3.4	0	0	2	1	-0.00466653336	135	1	1.05	0.95	0.0000	0.0000	0.0000	0.0000;
	20	1	0.01066	0.7	0	0	2	1	-0.00447422753	135	1	1.05	0.95	0.0000	0.0000	0.0000	0.0000;
	21	1	0.035875	11.2	0	0	3	1	-0.00126422372	135	1	1.05	0.95	0.0000	0.0000	0.0000	0.0000;
	22	2	0	0	0	0	3	1	-0.000467279932	135	1	1.1	0.95	0.0000	0.0000	0.0000	0.0000;
	23	2	0.00861	1.6	0	0	2	1	0.00441107233	135	1	1.1	0.95	0.0000	0.0000	0.0000	0.0000;
	24	2	0.017835	6.7	0	0.04	3	1	-0.00047573094	135	1	1.05	0.95	0.0000	0.0000	0.0000	0.0000;
	25	1	0	0	0	0	3	1	-0.00291579592	135	1	1.05	0.95	0.0000	0.0000	0.0000	0.0000;
	26	2	0.007175	2.3	0	0	3	1	-0.00447796535	135	1	1.05	0.95	0.0000	0.0000	0.0000	0.0000;
	27	2	0	0	0	0	3	1	-0.00360526039	135	1	1.1	0.95	0.0000	0.0000	0.0000	0.0000;
	28	1	0	0	0	0	1	1	-0.00493120597	135	1	1.05	0.95	0.0000	0.0000	0.0000	0.0000;
	29	1	0.00902	0.9	0	0	3	1	-0.0072109301	135	1	1.05	0.95	0.0000	0.0000	0.0000	0.0000;
	30	2	0.02173	1.9	0	0	3	1	-0.00874851196	135	1	1.05	0.95	0.0000	0.0000	0.0000	0.0000;
];

%% generator data
%	bus	Pg	Qg	Qmax	Qmin	Vg	mBase	status	Pmax	Pmin	Pc1	Pc2	Qc1min	Qc1max	Qc2min	Qc2max	ramp_agc	ramp_10	ramp_30	ramp_q	apf	mu_Pmax	mu_Pmin	mu_Qmax	mu_Qmin
mpc.gen = [
	1	0.0999999144	0	150	-20	1	100	1	0.1	0	0	0	0	0	0	0	0	0.012	0	0	0	0.0000	0.0000	0.0000	0.0000;
	2	0.0363908732	0	60	-20	1	100	1	0.065	0	0	0	0	0	0	0	0	0.012	0	0	0	0.0000	0.0000	0.0000	0.0000;
	4	-0.00612826539	0	40	-10	1	100	1	0.101	-0.0531	0	0	0	0	0	0	0	999	0	0	0	0.0000	0.0000	0.0000	0.0000;
	7	0	0	40	-10	1	100	1	0	0	0	0	0	0	0	0	0	999	0	0	0	0.0000	0.0000	0.0000	0.0000;
	10	-0.00390047059	0	40	-10	1	100	1	0.0673	-0.0354	0	0	0	0	0	0	0	999	0	0	0	0.0000	0.0000	0.0000	0.0000;
	13	0.0800190128	0	44.7	-15	1	100	1	0.086	0.0745	0	0	0	0	0	0	0	0.008	0	0	0	0.0000	0.0000	0.0000	0.0000;
	15	0	0	40	-10	1	100	1	0	0	0	0	0	0	0	0	0	999	0	0	0	0.0000	0.0000	0.0000	0.0000;
	22	-0.00238508447	0	62.5	-15	1	100	1	0.08424	-0.0443	0	0	0	0	0	0	0	999	0	0	0	0.0000	0.0000	0.0000	0.0000;
	22	0.0969997057	0	62.5	-15	1	100	1	0.097	0.052	0	0	0	0	0	0	0	0.008	0	0	0	0.0000	0.0000	0.0000	0.0000;
	23	0.0819999162	0	40	-10	1	100	1	0.082	0.056	0	0	0	0	0	0	0	0.008	0	0	0	0.0000	0.0000	0.0000	0.0000;
	24	-0.000930928649	0	40	-10	1	100	1	0.0758	-0.0398	0	0	0	0	0	0	0	999	0	0	0	0.0000	0.0000	0.0000	0.0000;
	26	0	0	40	-10	1	100	1	0	0	0	0	0	0	0	0	0	999	0	0	0	0.0000	0.0000	0.0000	0.0000;
	27	0.0299999648	0	48.7	-15	1	100	1	0.03	0	0	0	0	0	0	0	0	0.012	0	0	0	0.0000	0.0000	0.0000	0.0000;
	30	0.000805361871	0	40	-10	1	100	1	0.0673	-0.0398	0	0	0	0	0	0	0	999	0	0	0	0.0000	0.0000	0.0000	0.0000;
];

%% branch data
%	fbus	tbus	r	x	b	rateA	rateB	rateC	ratio	angle	status	angmin	angmax	Pf	Qf	Pt	Qt	mu_Sf	mu_St	mu_angmin	mu_angmax
mpc.branch = [
	1	2	0.002	0.06	0.03	0.13	0.13	0.13	0	0	1	-360	360	0.0681	0.0000	-0.0681	0.0000	0.0000	0.0000	0.0000	0.0000;
	1	3	0.005	0.19	0.02	0.032	0.13	0.13	0	0	1	-360	360	0.0319	0.0000	-0.0319	0.0000	0.0000	0.0000	0.0000	0.0000;
	2	4	0.006	0.17	0.02	0.016	0.065	0.065	0	0	1	-360	360	0.0160	0.0000	-0.0160	0.0000	0.0000	0.0000	0.0000	0.0000;
	3	4	0.001	0.04	0	0.032	0.13	0.13	0	0	1	-360	360	0.0188	0.0000	-0.0188	0.0000	0.0000	0.0000	0.0000	0.0000;
	2	5	0.005	0.2	0.02	0.032	0.13	0.13	0	0	1	-360	360	0.0201	0.0000	-0.0201	0.0000	0.0000	0.0000	0.0000	0.0000;
	2	6	0.006	0.18	0.02	0.032	0.065	0.065	0	0	1	-360	360	0.0239	0.0000	-0.0239	0.0000	0.0000	0.0000	0.0000	0.0000;
	4	6	0.001	0.04	0	0.09	0.09	0.09	0	0	1	-360	360	0.0396	0.0000	-0.0396	0.0000	0.0000	0.0000	0.0000	0.0000;
	5	7	0.005	0.12	0.01	0.032	0.07	0.07	0	0	1	-360	360	0.0201	0.0000	-0.0201	0.0000	0.0000	0.0000	0.0000	0.0000;
	6	7	0.003	0.08	0.01	0.07	0.13	0.13	0	0	1	-360	360	0.0266	0.0000	-0.0266	0.0000	0.0000	0.0000	0.0000	0.0000;
	6	8	0.001	0.04	0	0.09	0.032	0.032	0	0	1	-360	360	0.0521	0.0000	-0.0521	0.0000	0.0000	0.0000	0.0000	0.0000;
	6	9	0	0.21	0	0.065	0.065	0.065	0	0	1	-360	360	-0.0120	0.0000	0.0120	0.0000	0.0000	0.0000	0.0000	0.0000;
	6	10	0	0.56	0	0.032	0.032	0.032	0	0	1	-360	360	-0.0068	0.0000	0.0068	0.0000	0.0000	0.0000	0.0000	0.0000;
	9	11	0	0.21	0	0.016	0.065	0.065	0	0	1	-360	360	0.0000	0.0000	-0.0000	0.0000	0.0000	0.0000	0.0000	0.0000;
	9	10	0	0.11	0	0.065	0.065	0.065	0	0	1	-360	360	-0.0120	0.0000	0.0120	0.0000	0.0000	0.0000	0.0000	0.0000;
	4	12	0	0.26	0	0.07	0.065	0.065	0	0	1	-360	360	-0.0266	0.0000	0.0266	0.0000	0.0000	0.0000	0.0000	0.0000;
	12	13	0	0.14	0	0.09	0.065	0.065	0	0	1	-360	360	-0.0800	0.0000	0.0800	0.0000	0.0000	0.0000	0.0000	0.0000;
	12	14	0.012	0.26	0	0.016	0.032	0.032	0	0	1	-360	360	0.0072	0.0000	-0.0072	0.0000	0.0000	0.0000	0.0000	0.0000;
	12	15	0.007	0.13	0	0.065	0.032	0.032	0	0	1	-360	360	0.0059	0.0000	-0.0059	0.0000	0.0000	0.0000	0.0000	0.0000;
	12	16	0.009	0.2	0	0.032	0.032	0.032	0	0	1	-360	360	0.0174	0.0000	-0.0174	0.0000	0.0000	0.0000	0.0000	0.0000;
	14	15	0.022	0.2	0	0.032	0.016	0.016	0	0	1	-360	360	-0.0055	0.0000	0.0055	0.0000	0.0000	0.0000	0.0000	0.0000;
	16	17	0.008	0.19	0	0.016	0.016	0.016	0	0	1	-360	360	0.0098	0.0000	-0.0098	0.0000	0.0000	0.0000	0.0000	0.0000;
	15	18	0.011	0.22	0	0.07	0.016	0.016	0	0	1	-360	360	0.0253	0.0000	-0.0253	0.0000	0.0000	0.0000	0.0000	0.0000;
	18	19	0.006	0.13	0	0.065	0.016	0.016	0	0	1	-360	360	0.0147	0.0000	-0.0147	0.0000	0.0000	0.0000	0.0000	0.0000;
	19	20	0.003	0.07	0	0.016	0.032	0.032	0	0	1	-360	360	-0.0048	0.0000	0.0048	0.0000	0.0000	0.0000	0.0000	0.0000;
	10	20	0.009	0.21	0	0.032	0.032	0.032	0	0	1	-360	360	0.0155	0.0000	-0.0155	0.0000	0.0000	0.0000	0.0000	0.0000;
	10	17	0.003	0.08	0	0.065	0.032	0.032	0	0	1	-360	360	0.0086	0.0000	-0.0086	0.0000	0.0000	0.0000	0.0000	0.0000;
	10	21	0.003	0.07	0	0.065	0.032	0.032	0	0	1	-360	360	-0.0337	0.0000	0.0337	0.0000	0.0000	0.0000	0.0000	0.0000;
	10	22	0.007	0.15	0	0.065	0.032	0.032	0	0	1	-360	360	-0.0250	0.0000	0.0250	0.0000	0.0000	0.0000	0.0000	0.0000;
	21	22	0.001	0.02	0	0.09	0.032	0.032	0	0	1	-360	360	-0.0695	0.0000	0.0695	0.0000	0.0000	0.0000	0.0000	0.0000;
	15	23	0.01	0.2	0	0.09	0.016	0.016	0	0	1	-360	360	-0.0418	0.0000	0.0418	0.0000	0.0000	0.0000	0.0000	0.0000;
	22	24	0.012	0.18	0	0.032	0.016	0.016	0	0	1	-360	360	0.0001	0.0000	-0.0001	0.0000	0.0000	0.0000	0.0000	0.0000;
	23	24	0.013	0.27	0	0.07	0.016	0.016	0	0	1	-360	360	0.0316	0.0000	-0.0316	0.0000	0.0000	0.0000	0.0000	0.0000;
	24	25	0.019	0.33	0	0.065	0.016	0.016	0	0	1	-360	360	0.0129	0.0000	-0.0129	0.0000	0.0000	0.0000	0.0000	0.0000;
	25	26	0.025	0.38	0	0.065	0.016	0.016	0	0	1	-360	360	0.0072	0.0000	-0.0072	0.0000	0.0000	0.0000	0.0000	0.0000;
	25	27	0.011	0.21	0	0.065	0.016	0.016	0	0	1	-360	360	0.0057	0.0000	-0.0057	0.0000	0.0000	0.0000	0.0000	0.0000;
	28	27	0	0.4	0	0.016	0.065	0.065	0	0	1	-360	360	-0.0058	0.0000	0.0058	0.0000	0.0000	0.0000	0.0000	0.0000;
	27	29	0.0022	0.42	0	0.032	0.016	0.016	0	0	1	-360	360	0.0150	0.0000	-0.0150	0.0000	0.0000	0.0000	0.0000	0.0000;
	27	30	0.0032	0.6	0	0.032	0.016	0.016	0	0	1	-360	360	0.0150	0.0000	-0.0150	0.0000	0.0000	0.0000	0.0000	0.0000;
	29	30	0.0024	0.45	0	0.032	0.016	0.016	0	0	1	-360	360	0.0060	0.0000	-0.0060	0.0000	0.0000	0.0000	0.0000	0.0000;
	8	28	0.0006	0.2	0.02	0.016	0.032	0.032	0	0	1	-360	360	-0.0094	0.0000	0.0094	0.0000	0.0000	0.0000	0.0000	0.0000;
	6	28	0.0002	0.06	0.01	0.016	0.032	0.032	0	0	1	-360	360	0.0036	0.0000	-0.0036	0.0000	0.0000	0.0000	0.0000	0.0000;
];

%%-----  OPF Data  -----%%
%% generator cost data
%	1	startup	shutdown	n	x1	y1	...	xn	yn
%	2	startup	shutdown	n	c(n-1)	...	c0
mpc.gencost = [
	2	0	0	3	0	110	0;
	2	0	0	3	42500	120	2.13;
	2	0	0	3	1000000	0	0;
	2	0	0	3	0	0	0;
	2	0	0	3	1000000	0	0;
	2	0	0	3	110000	8000	1.52;
	2	0	0	3	0	0	0;
	2	0	0	3	1000000	0	0;
	2	0	0	3	94500	3000	1.71;
	2	0	0	3	91500	1200	1.45;
	2	0	0	3	1000000	0	0;
	2	0	0	3	0	0	0;
	2	0	0	3	49000	80	1.2;
	2	0	0	3	1000000	0	0;
];
